*Heading
** Job name: Concrete_Impact_Height_2050mm Model name: Test_Concrete_Impact
** Generated by: Abaqus/CAE 2021
*Preprint, echo=NO, model=NO, history=NO, contact=NO
**
** PARTS
**
*Part, name=Part-4
*Node
      1,        -375.,           0.,         335.
      2,        -305.,           0.,         335.
      3,        -305.,          25.,         335.
      4,        -375.,          25.,         335.
      5,        -375.,           0.,          70.
      6,        -305.,           0.,          70.
      7,        -305.,          25.,          70.
      8,        -375.,          25.,          70.
      9,        -305.,         -25.,         335.
     10,        -375.,         -25.,         335.
     11,        -305.,         -25.,          70.
     12,        -375.,         -25.,          70.
     13,         305.,           0.,         335.
     14,         305.,         -25.,         335.
     15,         305.,         -25.,          70.
     16,         305.,           0.,          70.
     17,          40.,           0.,         335.
     18,         -40.,           0.,         335.
     19,          40.,         -25.,         335.
     20,         -40.,         -25.,         335.
** ... 5650 like lines cut
*Element, type=C3D8R
 1,  120, 1279, 1315,   97,    1,   85,   90,    4
 2, 1279, 1280, 1316, 1315,   85,   86,   89,   90
 3, 1280, 1281, 1317, 1316,   86,   87,   88,   89
 4, 1281,  144,  121, 1317,   87,    2,    3,   88
 5,  119, 1282, 1318,   98,  120, 1279, 1315,   97
 6, 1282, 1283, 1319, 1318, 1279, 1280, 1316, 1315
 7, 1283, 1284, 1320, 1319, 1280, 1281, 1317, 1316
 8, 1284,  143,  122, 1320, 1281,  144,  121, 1317
 9,  118, 1285, 1321,   99,  119, 1282, 1318,   98
10, 1285, 1286, 1322, 1321, 1282, 1283, 1319, 1318
11, 1286, 1287, 1323, 1322, 1283, 1284, 1320, 1319
12, 1287,  142,  123, 1323, 1284,  143,  122, 1320
13,  117, 1288, 1324,  100,  118, 1285, 1321,   99
14, 1288, 1289, 1325, 1324, 1285, 1286, 1322, 1321
15, 1289, 1290, 1326, 1325, 1286, 1287, 1323, 1322
16, 1290,  141,  124, 1326, 1287,  142,  123, 1323
17,  116, 1291, 1327,  101,  117, 1288, 1324,  100
18, 1291, 1292, 1328, 1327, 1288, 1289, 1325, 1324
19, 1292, 1293, 1329, 1328, 1289, 1290, 1326, 1325
20, 1293,  140,  125, 1329, 1290,  141,  124, 1326
** ... 3588 like lines cut
*Nset, nset=Set-1, generate
    1,  5670,     1
*Elset, elset=Set-1, generate
    1,  3608,     1
** Section: Section-2
*Solid Section, elset=Set-1, material=Concrete
,
*End Part
**  
*Part, name=Part-5
*Node
      1,           0.,        -37.5,         600.
      2,           0.,           0.,         600.
      3,        -37.5,           0.,         600.
      4,           0.,        -37.5,           0.
      5,           0.,           0.,           0.
      6,        -37.5,           0.,           0.
      7,         37.5,           0.,           0.
      8,         37.5,           0.,         600.
      9,           0.,         37.5,           0.
     10,           0.,         37.5,         600.
     11,  -32.4759521,       -18.75,         600.
     12,       -18.75,  -32.4759521,         600.
     13,           0.,       -18.75,         600.
     14,           0.,        -37.5,         580.
     15,           0.,        -37.5,         560.
     16,           0.,        -37.5,         540.
     17,           0.,        -37.5,         520.
     18,           0.,        -37.5,         500.
     19,           0.,        -37.5,         480.
     20,           0.,        -37.5,         460.
** ... 817 like lines cut
*Element, type=C3D8R
  1, 215, 216, 636, 621,  11,  12, 185, 184
  2, 216,  14, 186, 636,  12,   1,  13, 185
  3, 217, 218, 637, 620, 215, 216, 636, 621
  4, 218,  15, 187, 637, 216,  14, 186, 636
  5, 219, 220, 638, 619, 217, 218, 637, 620
  6, 220,  16, 188, 638, 218,  15, 187, 637
  7, 221, 222, 639, 618, 219, 220, 638, 619
  8, 222,  17, 189, 639, 220,  16, 188, 638
  9, 223, 224, 640, 617, 221, 222, 639, 618
 10, 224,  18, 190, 640, 222,  17, 189, 639
 11, 225, 226, 641, 616, 223, 224, 640, 617
 12, 226,  19, 191, 641, 224,  18, 190, 640
 13, 227, 228, 642, 615, 225, 226, 641, 616
 14, 228,  20, 192, 642, 226,  19, 191, 641
 15, 229, 230, 643, 614, 227, 228, 642, 615
 16, 230,  21, 193, 643, 228,  20, 192, 642
 17, 231, 232, 644, 613, 229, 230, 643, 614
 18, 232,  22, 194, 644, 230,  21, 193, 643
 19, 233, 234, 645, 612, 231, 232, 644, 613
 20, 234,  23, 195, 645, 232,  22, 194, 644
** ... 580 like lines cut
*Nset, nset=Set-1, generate
   1,  837,    1
*Elset, elset=Set-1, generate
   1,  600,    1
** Section: Section-1
*Solid Section, elset=Set-1, material=Steel
,
*End Part
**  
**
** ASSEMBLY
**
*Assembly, name=Assembly
**  
*Instance, name=Part-4-1, part=Part-4
*End Instance
**  
*Instance, name=Part-5-1, part=Part-5
          0.,        2075.,         375.
          0.,        2075.,         375., -1.00000001268805,        2075.,         375., 89.9999992730282
*End Instance
**  
*Nset, nset=Set-1, instance=Part-4-1
    1,    4,    5,    8,   10,   12,   21,   22,   23,   24,   25,   27,   31,   32,   33,   41
   42,   44,   53,   54,   56,   58,   59,   60,   61,   62,   63,   64,   65,   66,   67,   68
   69,   70,   71,   72,   73,   74,   75,   76,   77,   78,   79,   80,   81,   82,   83,   84
   97,   98,   99,  100,  101,  102,  103,  104,  105,  106,  107,  108,  109,  110,  111,  112
  113,  114,  115,  116,  117,  118,  119,  120,  151,  152,  153,  154,  155,  156,  157,  158
  159,  160,  161,  162,  335,  336,  337,  338,  339,  340,  341,  342,  343,  344,  345,  346
  347,  348,  349,  350,  351,  352,  353,  354,  355,  356,  357,  358,  365,  366,  367,  368
  369,  370,  371,  372,  373,  374,  375,  376,  395,  396,  397,  398,  399,  400,  401,  402
  403,  404,  405,  406,  407,  408,  409,  410,  411,  412,  434,  435,  436,  437,  438,  439
  440,  441,  442,  554,  555,  556,  557,  558,  559,  560,  561,  562,  563,  564,  565,  566
  567,  568,  569,  570,  571,  575,  576,  577,  578,  579,  580,  581,  582,  583,  821,  822
  823,  824,  825,  826,  827,  828,  829,  830,  831,  832,  833,  834,  835,  836,  837,  838
  839,  840,  841,  842,  843,  844,  848,  849,  850,  851,  852,  853,  854,  855,  856,  857
  858,  859,  931,  932,  933,  934,  935,  936,  937,  938,  939,  940,  941,  942,  943,  944
  945,  946,  947,  948,  949,  950,  951,  952,  953,  954,  964,  965,  966,  967,  968,  969
  970,  971,  972,  973,  974,  975,  979,  980,  981,  982,  983,  984,  991,  992,  993,  994
  995,  996,  997,  998,  999, 1000, 1001, 1002, 1003, 1004, 1005, 1009, 1010, 1011, 1015, 1016
 1017, 1018, 1019, 1020, 1027, 1028, 1029, 1030, 1031, 1032, 1033, 1034, 1035, 1036, 1037, 1038
 1045, 1046, 1047, 1048, 1049, 1050, 1051, 1052, 1053, 1054, 1055, 1056, 1057, 1058, 1059, 1063
 1064, 1065, 1069, 1070, 1071, 1075, 1076, 1077, 1078, 1079, 1080, 1084, 1085, 1086, 1087, 1088
** ... 12 like lines cut
*Elset, elset=Set-1, instance=Part-4-1
    1,    5,    9,   13,   17,   21,   25,   29,   33,   37,   41,   45,   49,   56,   60,   64
   68,   72,   76,   80,   84,   88,   92,   96,  100,  104,  534,  538,  542,  546,  550,  554
  558,  562,  566,  570,  574,  578,  582,  586,  590,  594,  598,  602,  606,  610,  614,  618
  622,  626,  630,  634,  638,  642,  646,  650,  654,  658,  662,  666,  670,  674,  681,  685
  689,  693,  697,  701,  705,  709,  713,  717,  948,  952,  956,  960,  964,  968,  972,  976
  980,  984,  988,  992,  996, 1000, 1004, 1008, 1012, 1016, 1020, 1024, 2006, 2010, 2014, 2018
 2022, 2026, 2030, 2034, 2038, 2042, 2046, 2050, 2054, 2061, 2065, 2069, 2073, 2077, 2081, 2085
 2089, 2093, 2097, 2101, 2105, 2109, 2539, 2543, 2547, 2551, 2555, 2559, 2563, 2567, 2571, 2575
 2579, 2583, 2587, 2740, 2741, 2742, 2743, 2744, 2745, 2746, 2747, 2748, 2749, 2750, 2751, 2752
 2756, 2760, 2764, 2765, 2766, 2767, 2768, 2772, 2776, 2780, 2781, 2782, 2783, 2784, 2788, 2792
 2796, 2797, 2798, 2799, 2800, 2801, 2805, 2809, 2813, 2814, 2815, 2816, 2820, 2824, 2828, 2829
 2830, 2831, 2832, 2836, 2840, 2844, 2845, 2846, 2847, 2848, 2852, 2856, 2860, 2861, 2862, 2863
 2864, 2865, 2866, 2867, 2868, 2872, 2876, 2880, 2884, 2888, 2892, 2896, 2900, 2904, 2908, 2912
 2916, 2920, 2924, 2928, 2932, 2936, 2940, 2944, 2948, 2952, 2956, 2960, 2964, 2968, 2972, 2976
 2980, 2984, 2988, 2992, 2996, 3000, 3004, 3008, 3012, 3013, 3017, 3021, 3025, 3029, 3033, 3037
 3041, 3045, 3049, 3053, 3057, 3061, 3065, 3069, 3073, 3077, 3081, 3085, 3089, 3093, 3097, 3101
 3105, 3109, 3113, 3117, 3121, 3125, 3129, 3133, 3137, 3141, 3244, 3245, 3246, 3247, 3248, 3249
 3250, 3251, 3252, 3253, 3254, 3255, 3256, 3257, 3258, 3259, 3260, 3261, 3262, 3263, 3264, 3265
 3266, 3267, 3268, 3269, 3270, 3271, 3272, 3273, 3274, 3275, 3276, 3277, 3281, 3285, 3289, 3293
 3297, 3301, 3305, 3309, 3313, 3317, 3321, 3325, 3329, 3333, 3337, 3341, 3345, 3349, 3353, 3357
 3361, 3365, 3369, 3373, 3377, 3381, 3385, 3389, 3393, 3397, 3401, 3405
*End Assembly
** 
** MATERIALS
** 
*Material, name=Concrete
*Density
 2.5e-09,
*Elastic
 41907.3, 0.2
*Concrete Damaged Plasticity
35.,  0.1, 1.16, 0.66,   0.
*Concrete Compression Hardening
 102.102,          0.
 110.617,  0.00011043
 117.466,    0.000197
 117.822, 0.000205391
    120., 0.000336538
 96.8558,  0.00118881
 75.3216,  0.00195266
 58.8072,  0.00259673
 46.7899,  0.00313349
 38.0287,  0.00359255
 31.5268,   0.0039977
 26.5963,  0.00436535
  23.007,  0.00468413
 20.1298,   0.0049859
  15.358,  0.00563353
*Concrete Tension Stiffening
7.,0.
*Concrete Compression Damage
       0.,          0.
       0.,  0.00011043
       0.,    0.000197
       0., 0.000205391
       0., 0.000336538
 0.192868,  0.00118881
  0.37232,  0.00195266
  0.50994,  0.00259673
 0.610084,  0.00313349
 0.683094,  0.00359255
 0.737277,   0.0039977
 0.778364,  0.00436535
 0.808275,  0.00468413
 0.832251,   0.0049859
*Concrete Failure, TYPE=Strain
0,0.00563,0,0.87201
*Material, name=Steel
*Density
 7.925e-09,
*Elastic
208000., 0.3
** 
** INTERACTION PROPERTIES
** 
*Surface Interaction, name=IntProp-1
*Friction
0.,
*Surface Behavior, pressure-overclosure=HARD
** 
** BOUNDARY CONDITIONS
** 
** Name: BC-1 Type: Symmetry/Antisymmetry/Encastre
*Boundary
Set-1, PINNED
** 
** INTERACTIONS
** 
** Interaction: Int-1
*Contact, op=NEW
*Contact Inclusions, ALL EXTERIOR
*Contact Property Assignment
 ,  , IntProp-1
** ----------------------------------------------------------------
** 
** STEP: Step-1
** 
*Step, name=Step-1, nlgeom=YES
*Dynamic, Explicit
, 1.
*Bulk Viscosity
0.06, 1.2
** 
** LOADS
** 
** Name: Load-1   Type: Gravity
*Dload
, GRAV, 9810., 0., -1., 0.
** 
** OUTPUT REQUESTS
** 
*Restart, write, number interval=1, time marks=NO
** 
** FIELD OUTPUT: F-Output-1
** 
*Output, field, time interval=0.001
*Node Output
A, RF, U, V
*Element Output, directions=YES
DAMAGEC, DAMAGET, EVF, LE, PE, PEEQ, PEEQVAVG, PEVAVG, S, STATUS, SVAVG
*Contact Output
CSTRESS, 
** 
** HISTORY OUTPUT: H-Output-1
** 
*Output, history, variable=PRESELECT
*End Step
